dss/import/capas-pablo/Formato-interfaz/13n-switch-modificado/Line.dss
New Line.LC684_652A phases=1 bus1=684.1 bus2=652.1 geometry=LineConfig605 length=109.58 units=m
New Line.LC692_675 phases=3 bus1=692.1.2.3 bus2=675.1.2.3 geometry=LineConfig602 length=130.78 units=m
New Line.LOHL632_633 phases=3 bus1=632.1.2.3.4 bus2=633.1.2.3.4 geometry=LineConfig602 length=137.41 units=m
New Line.LOHL632_645 phases=2 bus1=632.3.2.4 bus2=645.3.2.4 geometry=LineConfig603_604 length=82.16 units=m
New Line.LOHL632_671 phases=3 bus1=632.1.2.3.4 bus2=671.1.2.3.4 geometry=LineConfig601 length=160.59 units=m
New Line.LOHL645_646 phases=2 bus1=645.3.2.4 bus2=646.3.2.4 geometry=LineConfig603_604 length=138.29 units=m
New Line.LOHL650_632 phases=3 bus1=RG60.1.2.3.4 bus2=632.1.2.3.4 geometry=LineConfig601 length=62.81 units=m
New Line.LOHL671_680 phases=3 bus1=671.1.2.3.4 bus2=680.1.2.3.4 geometry=LineConfig601 length=70.17 units=m
New Line.LOHL671_684 phases=2 bus1=671.1.3.4 bus2=684.1.3.4 geometry=LineConfig603_604 length=161.09 units=m
New Line.LOHL684_611 phases=1 bus1=684.3.4 bus2=611.3.4 geometry=LineConfig605 length=125.88 units=m
New Line.InterruptorPrincipal phases=3 bus1=650.1.2.3 bus2=RG60.1.2.3 geometry=LineConfig601 length=66.08 units=m
New Line.Switch phases=3 bus1=671.1.2.3.4 bus2=692.1.2.3.4 geometry=LineConfig602 length=131.58 units=m